
[General]
network = lisnoc.networks.MeshBuffered
#**.source.initialdelay = intuniform(0,100)
output-scalar-file = ${resultdir}/${configname}-${iterationvars}.sca
output-vector-file = ${resultdir}/${configname}-${iterationvars}.vec
**.source.initialdelay = 0

[Config DualCast_UBT_1DC_4x4]
**.source.genDelay = 10
sim-time-limit = 500ns
**.source.Algo = 1

MeshBuffered.ni[9].source.UC = false
**.ni[9].source.dstId = 14
**.ni[9].source.dst2Id = 4
MeshBuffered.ni[9].source.DCNC = false

MeshBuffered.ni[3].source.UC = false
**.ni[3].source.dstId = 4
**.ni[3].source.dst2Id = 14
MeshBuffered.ni[3].source.DCNC = false

**.seperateStream = 60
MeshBuffered.ni[*].source.UC = true
MeshBuffered.ni[*].source.dstId = (id + intuniform(1, numNIs-1)) % numNIs

**.columns = 4
**.rows = 4

[Config DualCast_UBT_2DC_4x4]
**.source.genDelay = 10
sim-time-limit = 500ns
**.source.Algo = 1

MeshBuffered.ni[9].source.UC = false
**.ni[9].source.dstId = 14
**.ni[9].source.dst2Id = 4
MeshBuffered.ni[9].source.DCNC = false

MeshBuffered.ni[3].source.UC = false
**.ni[3].source.dstId = 4
**.ni[3].source.dst2Id = 14
MeshBuffered.ni[3].source.DCNC = false

MeshBuffered.ni[1].source.UC = false
**.ni[1].source.dstId = 6
**.ni[1].source.dst2Id = 14
MeshBuffered.ni[1].source.DCNC = false

MeshBuffered.ni[12].source.UC = false
**.ni[12].source.dstId = 14
**.ni[12].source.dst2Id = 6
MeshBuffered.ni[12].source.DCNC = false

**.seperateStream = 60
MeshBuffered.ni[*].source.UC = true
MeshBuffered.ni[*].source.dstId = (id + intuniform(1, numNIs-1)) % numNIs

**.columns = 4
**.rows = 4

[Config DualCast_UBT_3DC_4x4]
**.source.genDelay = 10
sim-time-limit = 500ns
**.source.Algo = 1

MeshBuffered.ni[9].source.UC = false
**.ni[9].source.dstId = 14
**.ni[9].source.dst2Id = 4
MeshBuffered.ni[9].source.DCNC = false

MeshBuffered.ni[3].source.UC = false
**.ni[3].source.dstId = 4
**.ni[3].source.dst2Id = 14
MeshBuffered.ni[3].source.DCNC = false

MeshBuffered.ni[1].source.UC = false
**.ni[1].source.dstId = 6
**.ni[1].source.dst2Id = 14
MeshBuffered.ni[1].source.DCNC = false

MeshBuffered.ni[12].source.UC = false
**.ni[12].source.dstId = 14
**.ni[12].source.dst2Id = 6
MeshBuffered.ni[12].source.DCNC = false

MeshBuffered.ni[4].source.UC = false
**.ni[4].source.dstId = 5
**.ni[4].source.dst2Id = 15
MeshBuffered.ni[4].source.DCNC = false

MeshBuffered.ni[6].source.UC = false
**.ni[6].source.dstId = 15
**.ni[6].source.dst2Id = 5
MeshBuffered.ni[6].source.DCNC = false

**.seperateStream = 60
MeshBuffered.ni[*].source.UC = true
MeshBuffered.ni[*].source.dstId = (id + intuniform(1, numNIs-1)) % numNIs

**.columns = 4
**.rows = 4

[Config DualCast_wo_UBT_1DC_4x4]
**.source.genDelay = 10
sim-time-limit = 500ns
**.source.Algo = 1

MeshBuffered.ni[9].source.UC = false
**.ni[9].source.dstId = 14
**.ni[9].source.dst2Id = 4
MeshBuffered.ni[9].source.DCNC = false

MeshBuffered.ni[3].source.UC = false
**.ni[3].source.dstId = 4
**.ni[3].source.dst2Id = 14
MeshBuffered.ni[3].source.DCNC = false

**.seperateStream = 60

**.columns = 4
**.rows = 4

[Config DualCast_wo_UBT_2DC_4x4]
**.source.genDelay = 10
sim-time-limit = 500ns
**.source.Algo = 1

MeshBuffered.ni[9].source.UC = false
**.ni[9].source.dstId = 14
**.ni[9].source.dst2Id = 4
MeshBuffered.ni[9].source.DCNC = false

MeshBuffered.ni[3].source.UC = false
**.ni[3].source.dstId = 4
**.ni[3].source.dst2Id = 14
MeshBuffered.ni[3].source.DCNC = false

MeshBuffered.ni[1].source.UC = false
**.ni[1].source.dstId = 6
**.ni[1].source.dst2Id = 14
MeshBuffered.ni[1].source.DCNC = false

MeshBuffered.ni[12].source.UC = false
**.ni[12].source.dstId = 14
**.ni[12].source.dst2Id = 6
MeshBuffered.ni[12].source.DCNC = false

**.seperateStream = 60

**.columns = 4
**.rows = 4

[Config DualCast_wo_UBT_3DC_4x4]
**.source.genDelay = 10
sim-time-limit = 500ns
**.source.Algo = 1

MeshBuffered.ni[9].source.UC = false
**.ni[9].source.dstId = 14
**.ni[9].source.dst2Id = 4
MeshBuffered.ni[9].source.DCNC = false

MeshBuffered.ni[3].source.UC = false
**.ni[3].source.dstId = 4
**.ni[3].source.dst2Id = 14
MeshBuffered.ni[3].source.DCNC = false

MeshBuffered.ni[1].source.UC = false
**.ni[1].source.dstId = 6
**.ni[1].source.dst2Id = 14
MeshBuffered.ni[1].source.DCNC = false

MeshBuffered.ni[12].source.UC = false
**.ni[12].source.dstId = 14
**.ni[12].source.dst2Id = 6
MeshBuffered.ni[12].source.DCNC = false

MeshBuffered.ni[4].source.UC = false
**.ni[4].source.dstId = 5
**.ni[4].source.dst2Id = 15
MeshBuffered.ni[4].source.DCNC = false

MeshBuffered.ni[6].source.UC = false
**.ni[6].source.dstId = 15
**.ni[6].source.dst2Id = 5
MeshBuffered.ni[6].source.DCNC = false

**.seperateStream = 60

**.columns = 4
**.rows = 4

[Config DualCast_UBT_1DC_8x8]
**.source.genDelay = 10
sim-time-limit = 500ns
**.source.Algo = 1

MeshBuffered.ni[41].source.UC = false
**.ni[41].source.dstId = 62
**.ni[41].source.dst2Id = 4
MeshBuffered.ni[41].source.DCNC = false

MeshBuffered.ni[35].source.UC = false
**.ni[35].source.dstId = 4
**.ni[35].source.dst2Id = 62
MeshBuffered.ni[35].source.DCNC = false

**.seperateStream = 60
MeshBuffered.ni[*].source.UC = true
MeshBuffered.ni[*].source.dstId = (id + intuniform(1, numNIs-1)) % numNIs

**.columns = 8
**.rows = 8

[Config DualCast_UBT_2DC_8x8]
**.source.genDelay = 10
sim-time-limit = 500ns
**.source.Algo = 1

MeshBuffered.ni[41].source.UC = false
**.ni[41].source.dstId = 62
**.ni[41].source.dst2Id = 4
MeshBuffered.ni[41].source.DCNC = false

MeshBuffered.ni[35].source.UC = false
**.ni[35].source.dstId = 4
**.ni[35].source.dst2Id = 62
MeshBuffered.ni[35].source.DCNC = false

MeshBuffered.ni[33].source.UC = false
**.ni[33].source.dstId = 22
**.ni[33].source.dst2Id = 46
MeshBuffered.ni[33].source.DCNC = false

MeshBuffered.ni[44].source.UC = false
**.ni[44].source.dstId = 46
**.ni[44].source.dst2Id = 22
MeshBuffered.ni[44].source.DCNC = false

**.seperateStream = 60
MeshBuffered.ni[*].source.UC = true
MeshBuffered.ni[*].source.dstId = (id + intuniform(1, numNIs-1)) % numNIs

**.columns = 8
**.rows = 8

[Config DualCast_UBT_3DC_8x8]
**.source.genDelay = 10
sim-time-limit = 500ns
**.source.Algo = 1

MeshBuffered.ni[41].source.UC = false
**.ni[41].source.dstId = 62
**.ni[41].source.dst2Id = 4
MeshBuffered.ni[41].source.DCNC = false

MeshBuffered.ni[35].source.UC = false
**.ni[35].source.dstId = 4
**.ni[35].source.dst2Id = 62
MeshBuffered.ni[35].source.DCNC = false

MeshBuffered.ni[33].source.UC = false
**.ni[33].source.dstId = 22
**.ni[33].source.dst2Id = 46
MeshBuffered.ni[33].source.DCNC = false

MeshBuffered.ni[44].source.UC = false
**.ni[44].source.dstId = 46
**.ni[44].source.dst2Id = 22
MeshBuffered.ni[44].source.DCNC = false

MeshBuffered.ni[18].source.UC = false
**.ni[18].source.dstId = 48
**.ni[18].source.dst2Id = 51
MeshBuffered.ni[18].source.DCNC = false

MeshBuffered.ni[16].source.UC = false
**.ni[16].source.dstId = 51
**.ni[16].source.dst2Id = 48
MeshBuffered.ni[16].source.DCNC = false

**.seperateStream = 60
MeshBuffered.ni[*].source.UC = true
MeshBuffered.ni[*].source.dstId = (id + intuniform(1, numNIs-1)) % numNIs

**.columns = 8
**.rows = 8

[Config DualCast_wo_UBT_1DC_8x8]
**.source.genDelay = 10
sim-time-limit = 500ns
**.source.Algo = 1

MeshBuffered.ni[41].source.UC = false
**.ni[41].source.dstId = 62
**.ni[41].source.dst2Id = 4
MeshBuffered.ni[41].source.DCNC = false

MeshBuffered.ni[35].source.UC = false
**.ni[35].source.dstId = 4
**.ni[35].source.dst2Id = 62
MeshBuffered.ni[35].source.DCNC = false

**.seperateStream = 60

**.columns = 8
**.rows = 8

[Config DualCast_wo_UBT_2DC_8x8]
**.source.genDelay = 10
sim-time-limit = 500ns
**.source.Algo = 1

MeshBuffered.ni[41].source.UC = false
**.ni[41].source.dstId = 62
**.ni[41].source.dst2Id = 4
MeshBuffered.ni[41].source.DCNC = false

MeshBuffered.ni[35].source.UC = false
**.ni[35].source.dstId = 4
**.ni[35].source.dst2Id = 62
MeshBuffered.ni[35].source.DCNC = false

MeshBuffered.ni[33].source.UC = false
**.ni[33].source.dstId = 22
**.ni[33].source.dst2Id = 46
MeshBuffered.ni[33].source.DCNC = false

MeshBuffered.ni[44].source.UC = false
**.ni[44].source.dstId = 46
**.ni[44].source.dst2Id = 22
MeshBuffered.ni[44].source.DCNC = false

**.seperateStream = 60

**.columns = 8
**.rows = 8

[Config DualCast_wo_UBT_3DC_8x8]
**.source.genDelay = 10
sim-time-limit = 500ns
**.source.Algo = 1

MeshBuffered.ni[41].source.UC = false
**.ni[41].source.dstId = 62
**.ni[41].source.dst2Id = 4
MeshBuffered.ni[41].source.DCNC = false

MeshBuffered.ni[35].source.UC = false
**.ni[35].source.dstId = 4
**.ni[35].source.dst2Id = 62
MeshBuffered.ni[35].source.DCNC = false

MeshBuffered.ni[33].source.UC = false
**.ni[33].source.dstId = 22
**.ni[33].source.dst2Id = 46
MeshBuffered.ni[33].source.DCNC = false

MeshBuffered.ni[44].source.UC = false
**.ni[44].source.dstId = 46
**.ni[44].source.dst2Id = 22
MeshBuffered.ni[44].source.DCNC = false

MeshBuffered.ni[18].source.UC = false
**.ni[18].source.dstId = 48
**.ni[18].source.dst2Id = 51
MeshBuffered.ni[18].source.DCNC = false

MeshBuffered.ni[16].source.UC = false
**.ni[16].source.dstId = 51
**.ni[16].source.dst2Id = 48
MeshBuffered.ni[16].source.DCNC = false

**.seperateStream = 60

**.columns = 8
**.rows = 8

[Config NetworkCoded_UBT_1BF_4x4]
**.source.genDelay = 10
sim-time-limit = 500ns
**.source.Algo = ${Algo=1,2,3,4}
**.source.NC_better_check = true

MeshBuffered.ni[9].source.UC = false
**.ni[9].source.dstId = 14
**.ni[9].source.dst2Id = 4
MeshBuffered.ni[9].source.DCNC = true
MeshBuffered.ni[9].source.src2Id = 3

MeshBuffered.ni[3].source.UC = false
**.ni[3].source.dstId = 4
**.ni[3].source.dst2Id = 14
MeshBuffered.ni[3].source.DCNC = true
MeshBuffered.ni[3].source.src2Id = 9

**.seperateStream = 60
MeshBuffered.ni[*].source.UC = true
MeshBuffered.ni[*].source.dstId = (id + intuniform(1, numNIs-1)) % numNIs

**.columns = 4
**.rows = 4

[Config NetworkCoded_UBT_2BF_4x4]
**.source.genDelay = 10
sim-time-limit = 500ns
**.source.Algo = ${Algo=1,2,3,4}
**.source.NC_better_check = true

MeshBuffered.ni[9].source.UC = false
**.ni[9].source.dstId = 14
**.ni[9].source.dst2Id = 4
MeshBuffered.ni[9].source.DCNC = true
MeshBuffered.ni[9].source.src2Id = 3

MeshBuffered.ni[3].source.UC = false
**.ni[3].source.dstId = 4
**.ni[3].source.dst2Id = 14
MeshBuffered.ni[3].source.DCNC = true
MeshBuffered.ni[3].source.src2Id = 9

MeshBuffered.ni[1].source.UC = false
**.ni[1].source.dstId = 6
**.ni[1].source.dst2Id = 14
MeshBuffered.ni[1].source.DCNC = true
MeshBuffered.ni[1].source.src2Id = 12

MeshBuffered.ni[12].source.UC = false
**.ni[12].source.dstId = 14
**.ni[12].source.dst2Id = 6
MeshBuffered.ni[12].source.DCNC = true
MeshBuffered.ni[12].source.src2Id = 1

**.seperateStream = 60
MeshBuffered.ni[*].source.UC = true
MeshBuffered.ni[*].source.dstId = (id + intuniform(1, numNIs-1)) % numNIs

**.columns = 4
**.rows = 4

[Config NetworkCoded_UBT_3BF_4x4]
**.source.genDelay = 10
sim-time-limit = 500ns
**.source.Algo = ${Algo=1,2,3,4}
**.source.NC_better_check = true

MeshBuffered.ni[9].source.UC = false
**.ni[9].source.dstId = 14
**.ni[9].source.dst2Id = 4
MeshBuffered.ni[9].source.DCNC = true
MeshBuffered.ni[9].source.src2Id = 3

MeshBuffered.ni[3].source.UC = false
**.ni[3].source.dstId = 4
**.ni[3].source.dst2Id = 14
MeshBuffered.ni[3].source.DCNC = true
MeshBuffered.ni[3].source.src2Id = 9

MeshBuffered.ni[1].source.UC = false
**.ni[1].source.dstId = 6
**.ni[1].source.dst2Id = 14
MeshBuffered.ni[1].source.DCNC = true
MeshBuffered.ni[1].source.src2Id = 12

MeshBuffered.ni[12].source.UC = false
**.ni[12].source.dstId = 14
**.ni[12].source.dst2Id = 6
MeshBuffered.ni[12].source.DCNC = true
MeshBuffered.ni[12].source.src2Id = 1

MeshBuffered.ni[4].source.UC = false
**.ni[4].source.dstId = 5
**.ni[4].source.dst2Id = 15
MeshBuffered.ni[4].source.DCNC = true
MeshBuffered.ni[4].source.src2Id = 6

MeshBuffered.ni[6].source.UC = false
**.ni[6].source.dstId = 15
**.ni[6].source.dst2Id = 5
MeshBuffered.ni[6].source.DCNC = true
MeshBuffered.ni[6].source.src2Id = 4

**.seperateStream = 60
MeshBuffered.ni[*].source.UC = true
MeshBuffered.ni[*].source.dstId = (id + intuniform(1, numNIs-1)) % numNIs

**.columns = 4
**.rows = 4

[Config NetworkCoded_wo_UBT_1BF_4x4]
**.source.genDelay = 10
sim-time-limit = 500ns
**.source.Algo = ${Algo=1,2,3,4}
**.source.NC_better_check = true

MeshBuffered.ni[9].source.UC = false
**.ni[9].source.dstId = 14
**.ni[9].source.dst2Id = 4
MeshBuffered.ni[9].source.DCNC = true
MeshBuffered.ni[9].source.src2Id = 3

MeshBuffered.ni[3].source.UC = false
**.ni[3].source.dstId = 4
**.ni[3].source.dst2Id = 14
MeshBuffered.ni[3].source.DCNC = true
MeshBuffered.ni[3].source.src2Id = 9

**.seperateStream = 60

**.columns = 4
**.rows = 4

[Config NetworkCoded_wo_UBT_2BF_4x4]
**.source.genDelay = 10
sim-time-limit = 500ns
**.source.Algo = ${Algo=1,2,3,4}
**.source.NC_better_check = true

MeshBuffered.ni[9].source.UC = false
**.ni[9].source.dstId = 14
**.ni[9].source.dst2Id = 4
MeshBuffered.ni[9].source.DCNC = true
MeshBuffered.ni[9].source.src2Id = 3

MeshBuffered.ni[3].source.UC = false
**.ni[3].source.dstId = 4
**.ni[3].source.dst2Id = 14
MeshBuffered.ni[3].source.DCNC = true
MeshBuffered.ni[3].source.src2Id = 9

MeshBuffered.ni[1].source.UC = false
**.ni[1].source.dstId = 6
**.ni[1].source.dst2Id = 14
MeshBuffered.ni[1].source.DCNC = true
MeshBuffered.ni[1].source.src2Id = 12

MeshBuffered.ni[12].source.UC = false
**.ni[12].source.dstId = 14
**.ni[12].source.dst2Id = 6
MeshBuffered.ni[12].source.DCNC = true
MeshBuffered.ni[12].source.src2Id = 1

**.seperateStream = 60

**.columns = 4
**.rows = 4

[Config NetworkCoded_wo_UBT_3BF_4x4]
**.source.genDelay = 10
sim-time-limit = 500ns
**.source.Algo = ${Algo=1,2,3,4}
**.source.NC_better_check = true

MeshBuffered.ni[9].source.UC = false
**.ni[9].source.dstId = 14
**.ni[9].source.dst2Id = 4
MeshBuffered.ni[9].source.DCNC = true
MeshBuffered.ni[9].source.src2Id = 3

MeshBuffered.ni[3].source.UC = false
**.ni[3].source.dstId = 4
**.ni[3].source.dst2Id = 14
MeshBuffered.ni[3].source.DCNC = true
MeshBuffered.ni[3].source.src2Id = 9

MeshBuffered.ni[1].source.UC = false
**.ni[1].source.dstId = 6
**.ni[1].source.dst2Id = 14
MeshBuffered.ni[1].source.DCNC = true
MeshBuffered.ni[1].source.src2Id = 12

MeshBuffered.ni[12].source.UC = false
**.ni[12].source.dstId = 14
**.ni[12].source.dst2Id = 6
MeshBuffered.ni[12].source.DCNC = true
MeshBuffered.ni[12].source.src2Id = 1

MeshBuffered.ni[4].source.UC = false
**.ni[4].source.dstId = 5
**.ni[4].source.dst2Id = 15
MeshBuffered.ni[4].source.DCNC = true
MeshBuffered.ni[4].source.src2Id = 6

MeshBuffered.ni[6].source.UC = false
**.ni[6].source.dstId = 15
**.ni[6].source.dst2Id = 5
MeshBuffered.ni[6].source.DCNC = true
MeshBuffered.ni[6].source.src2Id = 4

**.seperateStream = 60

**.columns = 4
**.rows = 4

[Config NetworkCoded_UBT_1BF_8x8]
**.source.genDelay = 10
sim-time-limit = 500ns
**.source.Algo = ${Algo=1,2,3,4}
**.source.NC_better_check = true

MeshBuffered.ni[41].source.UC = false
**.ni[41].source.dstId = 62
**.ni[41].source.dst2Id = 4
MeshBuffered.ni[41].source.DCNC = true
MeshBuffered.ni[41].source.src2Id = 35

MeshBuffered.ni[35].source.UC = false
**.ni[35].source.dstId = 4
**.ni[35].source.dst2Id = 62
MeshBuffered.ni[35].source.DCNC = true
MeshBuffered.ni[35].source.src2Id = 41

**.seperateStream = 60
MeshBuffered.ni[*].source.UC = true
MeshBuffered.ni[*].source.dstId = (id + intuniform(1, numNIs-1)) % numNIs

**.columns = 8
**.rows = 8

[Config NetworkCoded_UBT_2BF_8x8]
**.source.genDelay = 10
sim-time-limit = 500ns
**.source.Algo = ${Algo=1,2,3,4}
**.source.NC_better_check = true

MeshBuffered.ni[41].source.UC = false
**.ni[41].source.dstId = 62
**.ni[41].source.dst2Id = 4
MeshBuffered.ni[41].source.DCNC = true
MeshBuffered.ni[41].source.src2Id = 35

MeshBuffered.ni[35].source.UC = false
**.ni[35].source.dstId = 4
**.ni[35].source.dst2Id = 62
MeshBuffered.ni[35].source.DCNC = true
MeshBuffered.ni[35].source.src2Id = 41

MeshBuffered.ni[33].source.UC = false
**.ni[33].source.dstId = 22
**.ni[33].source.dst2Id = 46
MeshBuffered.ni[33].source.DCNC = true
MeshBuffered.ni[33].source.src2Id = 44

MeshBuffered.ni[44].source.UC = false
**.ni[44].source.dstId = 46
**.ni[44].source.dst2Id = 22
MeshBuffered.ni[44].source.DCNC = true
MeshBuffered.ni[44].source.src2Id = 33

**.seperateStream = 60
MeshBuffered.ni[*].source.UC = true
MeshBuffered.ni[*].source.dstId = (id + intuniform(1, numNIs-1)) % numNIs

**.columns = 8
**.rows = 8

[Config NetworkCoded_UBT_3BF_8x8]
**.source.genDelay = 10
sim-time-limit = 500ns
**.source.Algo = ${Algo=1,2,3,4}
**.source.NC_better_check = true

MeshBuffered.ni[41].source.UC = false
**.ni[41].source.dstId = 62
**.ni[41].source.dst2Id = 4
MeshBuffered.ni[41].source.DCNC = true
MeshBuffered.ni[41].source.src2Id = 35

MeshBuffered.ni[35].source.UC = false
**.ni[35].source.dstId = 4
**.ni[35].source.dst2Id = 62
MeshBuffered.ni[35].source.DCNC = true
MeshBuffered.ni[35].source.src2Id = 41

MeshBuffered.ni[33].source.UC = false
**.ni[33].source.dstId = 22
**.ni[33].source.dst2Id = 46
MeshBuffered.ni[33].source.DCNC = true
MeshBuffered.ni[33].source.src2Id = 44

MeshBuffered.ni[44].source.UC = false
**.ni[44].source.dstId = 46
**.ni[44].source.dst2Id = 22
MeshBuffered.ni[44].source.DCNC = true
MeshBuffered.ni[44].source.src2Id = 33

MeshBuffered.ni[16].source.UC = false
**.ni[16].source.dstId = 48
**.ni[16].source.dst2Id = 51
MeshBuffered.ni[16].source.DCNC = true
MeshBuffered.ni[16].source.src2Id = 18

MeshBuffered.ni[18].source.UC = false
**.ni[18].source.dstId = 51
**.ni[18].source.dst2Id = 48
MeshBuffered.ni[18].source.DCNC = true
MeshBuffered.ni[18].source.src2Id = 16

**.seperateStream = 60
MeshBuffered.ni[*].source.UC = true
MeshBuffered.ni[*].source.dstId = (id + intuniform(1, numNIs-1)) % numNIs

**.columns = 8
**.rows = 8

[Config NetworkCoded_wo_UBT_1BF_8x8]
**.source.genDelay = 10
sim-time-limit = 500ns
**.source.Algo = ${Algo=1,2,3,4}
**.source.NC_better_check = true

MeshBuffered.ni[41].source.UC = false
**.ni[41].source.dstId = 62
**.ni[41].source.dst2Id = 4
MeshBuffered.ni[41].source.DCNC = true
MeshBuffered.ni[41].source.src2Id = 35

MeshBuffered.ni[35].source.UC = false
**.ni[35].source.dstId = 4
**.ni[35].source.dst2Id = 62
MeshBuffered.ni[35].source.DCNC = true
MeshBuffered.ni[35].source.src2Id = 41

**.seperateStream = 60

**.columns = 8
**.rows = 8

[Config NetworkCoded_wo_UBT_2BF_8x8]
**.source.genDelay = 10
sim-time-limit = 500ns
**.source.Algo = ${Algo=1,2,3,4}
**.source.NC_better_check = true

MeshBuffered.ni[41].source.UC = false
**.ni[41].source.dstId = 62
**.ni[41].source.dst2Id = 4
MeshBuffered.ni[41].source.DCNC = true
MeshBuffered.ni[41].source.src2Id = 35

MeshBuffered.ni[35].source.UC = false
**.ni[35].source.dstId = 4
**.ni[35].source.dst2Id = 62
MeshBuffered.ni[35].source.DCNC = true
MeshBuffered.ni[35].source.src2Id = 41

MeshBuffered.ni[33].source.UC = false
**.ni[33].source.dstId = 22
**.ni[33].source.dst2Id = 46
MeshBuffered.ni[33].source.DCNC = true
MeshBuffered.ni[33].source.src2Id = 44

MeshBuffered.ni[44].source.UC = false
**.ni[44].source.dstId = 46
**.ni[44].source.dst2Id = 22
MeshBuffered.ni[44].source.DCNC = true
MeshBuffered.ni[44].source.src2Id = 33

**.seperateStream = 60

**.columns = 8
**.rows = 8

[Config NetworkCoded_wo_UBT_3BF_8x8]
**.source.genDelay = 10
sim-time-limit = 500ns
**.source.Algo = ${Algo=1,2,3,4}
**.source.NC_better_check = true

MeshBuffered.ni[41].source.UC = false
**.ni[41].source.dstId = 62
**.ni[41].source.dst2Id = 4
MeshBuffered.ni[41].source.DCNC = true
MeshBuffered.ni[41].source.src2Id = 35

MeshBuffered.ni[35].source.UC = false
**.ni[35].source.dstId = 4
**.ni[35].source.dst2Id = 62
MeshBuffered.ni[35].source.DCNC = true
MeshBuffered.ni[35].source.src2Id = 41

MeshBuffered.ni[33].source.UC = false
**.ni[33].source.dstId = 22
**.ni[33].source.dst2Id = 46
MeshBuffered.ni[33].source.DCNC = true
MeshBuffered.ni[33].source.src2Id = 44

MeshBuffered.ni[44].source.UC = false
**.ni[44].source.dstId = 46
**.ni[44].source.dst2Id = 22
MeshBuffered.ni[44].source.DCNC = true
MeshBuffered.ni[44].source.src2Id = 33

MeshBuffered.ni[16].source.UC = false
**.ni[16].source.dstId = 48
**.ni[16].source.dst2Id = 51
MeshBuffered.ni[16].source.DCNC = true
MeshBuffered.ni[16].source.src2Id = 18

MeshBuffered.ni[18].source.UC = false
**.ni[18].source.dstId = 51
**.ni[18].source.dst2Id = 48
MeshBuffered.ni[18].source.DCNC = true
MeshBuffered.ni[18].source.src2Id = 16

**.seperateStream = 60

**.columns = 8
**.rows = 8

[Config Testing_4x4]
**.source.genDelay = 10
sim-time-limit = 50ns

**.source.Algo = 1
MeshBuffered.ni[0].source.UC = true
**.ni[0].source.dstId = 15

**.seperateStream = 60

**.columns = 4
**.rows = 4

[Config Testing2_4x4]
**.source.genDelay = 10
sim-time-limit = 200ns

**.source.Algo = 2
MeshBuffered.ni[0].source.UC = false
**.ni[0].source.dstId = 12
**.ni[0].source.dst2Id = 15
MeshBuffered.ni[0].source.DCNC = true
MeshBuffered.ni[0].source.src2Id = 3

MeshBuffered.ni[3].source.UC = false
**.ni[3].source.dstId = 15
**.ni[3].source.dst2Id = 12
MeshBuffered.ni[3].source.DCNC = true
MeshBuffered.ni[3].source.src2Id = 0

**.seperateStream = 60

**.columns = 4
**.rows = 4